[General]

[Config config1]
description = "Konfiguracija 1"
network = MMc
sim-time-limit = 10000 s
record-eventlog = true

MMc.source.interArrivalTime = ${interArrivalTime=3,5,7}s
MMc.queue.serverCount = ${serverCount=1..3 step 1}
**.scalar-recording = true
**.vector-recording = true

[Config config2]
description = "Konfiguracija 2"
network = MMc
MMc.queue.serverCount = 1
MMc.source.interArrivalTime = uniform(10s,20s)
